*1N5402*SRC=1N5402;DI_1N5402;Diodes;Si;  200V  3.00A  3.00us   Diodes Inc. Standard Rectifier 
.MODEL DI_1N5402 D  ( IS=63.0n RS=14.1m BV=200 IBV=10.0u 
+ CJO=125p  M=0.333 N=1.70 TT=4.32u )