.model DZENER_6V2 D(
+ IS=1e-14 RS=0.6 N=1.5
+ BV=6.2 IBV=0.01
+ CJO=100p VJ=0.7 M=0.4
+ TT=50n)