Version 4.1
SHEET 1 1652 680
WIRE 16 80 -96 80
WIRE 144 80 16 80
WIRE 448 80 240 80
WIRE -96 128 -96 80
WIRE 448 128 448 80
WIRE 16 160 16 80
WIRE 48 160 16 160
WIRE 192 160 192 144
WIRE 192 160 128 160
WIRE 192 224 192 160
WIRE -96 320 -96 208
WIRE 192 320 192 288
WIRE 192 320 -96 320
WIRE 448 320 448 208
WIRE 448 320 192 320
WIRE 192 352 192 320
FLAG 192 352 0
FLAG 448 80 Vout
IOPIN 448 80 Out
FLAG -96 80 VCC
IOPIN -96 80 In
SYMBOL npn 144 144 R270
SYMATTR InstName BD139
SYMBOL voltage -96 112 R0
WINDOW 123 0 0 Left 0
WINDOW 39 0 0 Left 0
SYMATTR InstName Vvar
SYMATTR Value ""
SYMBOL res 144 144 R90
WINDOW 0 0 56 VBottom 2
WINDOW 3 32 56 VTop 2
SYMATTR InstName R1
SYMATTR Value 100
SYMATTR SpiceLine pwr=1
SYMBOL zener 208 288 R180
WINDOW 0 24 64 Left 2
WINDOW 3 24 0 Left 2
SYMATTR InstName D1
SYMATTR Value DZENER_6V2
SYMBOL res 432 112 R0
WINDOW 3 36 68 Left 2
SYMATTR Value {Rload}
SYMATTR InstName R2
TEXT 584 -136 Left 1 !.inc C:\\Users\\Gabriel\\Documents\\Graduacao\\6-periodo\\Circuitos\\SerialPowerReg\\BD139.LIB
TEXT 584 -112 Left 1 !.inc C:\\Users\\Gabriel\\Documents\\Graduacao\\6-periodo\\Circuitos\\SerialPowerReg\\DZENER_6V2.LIB
TEXT -88 408 Left 1 !.dc Vvar 8 12 0.1
TEXT -88 424 Left 1 !.step param Rload 100 10 10
TEXT -88 440 Left 1 !.measure Vout_8V FIND V(Vout) WHEN V(VCC)=8\n.measure Vout_12V FIND V(Vout) WHEN V(VCC)=12\n.measure line_reg_percent PARAM (100*(Vout_12V - Vout_8V)/4)
