.model BZX55C2V4 D(BV=2.4 IBV=5m RS=0.5)