.SUBCKT LM358 1 2 3 4 5
E1 5 4 1 2 100K
R1 5 4 1K
.ENDS